data_image0
_chemical_formula_structural       O96Si45AlSi2HO96Si48HCH2COCH3OH2OH2OH2OH2OH2OH2OH2OH2OH2OH2OH2OH2OH2OH2OH2OH2OH2OH2OH2OH2
_chemical_formula_sum              "O213 Si95 Al1 H47 C3"
_cell_length_a       18.35351663596722
_cell_length_b       20.643684848983753
_cell_length_c       15.164573013636442
_cell_angle_alpha    90.0
_cell_angle_beta     90.0
_cell_angle_gamma    90.0

_space_group_name_H-M_alt    "P 1"
_space_group_IT_number       1

loop_
  _space_group_symop_operation_xyz
  'x, y, z'

loop_
  _atom_site_type_symbol
  _atom_site_label
  _atom_site_symmetry_multiplicity
  _atom_site_fract_x
  _atom_site_fract_y
  _atom_site_fract_z
  _atom_site_occupancy
  O   O1        1.0  0.29661191916155955  0.011571842529065885  0.0001610434162232947  1.0000
  O   O2        1.0  0.7979659183266005  0.5191893165165329  0.005032531741138546  1.0000
  O   O3        1.0  0.7350953241184938  0.018870845720240087  0.0017843112295700084  1.0000
  O   O4        1.0  0.23583017859738953  0.5137848445465375  0.9967909242943591  1.0000
  O   O5        1.0  0.29504545626811207  0.01319128356648755  0.24666239935422263  1.0000
  O   O6        1.0  0.8009161277833463  0.5190725143740006  0.2571208575925733  1.0000
  O   O7        1.0  0.7454205268490967  0.019462308157685092  0.25926297523165925  1.0000
  O   O8        1.0  0.23850983194450967  0.5115983305969893  0.24783868009807297  1.0000
  O   O9        1.0  0.3445587565448532  0.09408593869328018  0.1228074916390231  1.0000
  O   O10       1.0  0.8545969346330214  0.5947224356971341  0.13034424144616155  1.0000
  O   O11       1.0  0.6828659895910006  0.09082493614025089  0.13391613512204179  1.0000
  O   O12       1.0  0.19494353768094544  0.5954573249586002  0.12357485876944811  1.0000
  O   O13       1.0  0.35019960615621853  0.9382988851530997  0.3738338606241324  1.0000
  O   O14       1.0  0.8366726796232657  0.43349338614029254  0.3835446417405207  1.0000
  O   O15       1.0  0.696340558423969  0.9353202361189175  0.3804193402480445  1.0000
  O   O16       1.0  0.1874283427724307  0.4341962161087684  0.3746084311717604  1.0000
  O   O17       1.0  0.3856869503287075  0.10390281260748563  0.4607137921225132  1.0000
  O   O18       1.0  0.900874027920806  0.6048529258857913  0.4668659794171556  1.0000
  O   O19       1.0  0.6301493542999298  0.09345530900305213  0.47388030709475226  1.0000
  O   O20       1.0  0.15348554224019012  0.6133368411098633  0.46130446459451635  1.0000
  O   O21       1.0  0.4019197319795395  0.9288579205376085  0.2131343696145076  1.0000
  O   O22       1.0  0.8952927253414442  0.4233650421146637  0.22594837758892172  1.0000
  O   O23       1.0  0.6470582608820208  0.9296917090431277  0.21712078491190334  1.0000
  O   O24       1.0  0.1385418590166707  0.42072127767123846  0.21273712517593027  1.0000
  O   O25       1.0  0.6474650362136227  0.9196418269613011  0.04036126225386322  1.0000
  O   O26       1.0  0.13384366801982003  0.42604368190993763  0.036410977217719825  1.0000
  O   O27       1.0  0.4017099527113876  0.9261344417032386  0.03675318978129067  1.0000
  O   O28       1.0  0.8877048577832906  0.42340543126183167  0.04978476246224643  1.0000
  O   O29       1.0  0.6383921982635697  0.10083550757074508  0.2979532508184427  1.0000
  O   O30       1.0  0.14508133739114767  0.605719885492712  0.2857021281377267  1.0000
  O   O31       1.0  0.3908240667346502  0.10584392767825362  0.2851435733592436  1.0000
  O   O32       1.0  0.9055165532452937  0.6058416363697309  0.2911261286572453  1.0000
  O   O33       1.0  0.24750691098085223  0.13224786270476221  0.5052727440244927  1.0000
  O   O34       1.0  0.7685836348704512  0.6484442149823336  0.5118016819375888  1.0000
  O   O35       1.0  0.7646222857308286  0.13965063743865247  0.5051083710451998  1.0000
  O   O36       1.0  0.2926495998445898  0.6320753980113576  0.5079076496290323  1.0000
  O   O37       1.0  0.2674189957364149  0.8885435547590782  0.2460419875914531  1.0000
  O   O38       1.0  0.7523632371814495  0.40099084855076766  0.24333764093520172  1.0000
  O   O39       1.0  0.7857764824123554  0.8980109039893861  0.2509566327453155  1.0000
  O   O40       1.0  0.27679256169411687  0.3900639911768867  0.24972272753276914  1.0000
  O   O41       1.0  0.7879010186443502  0.9001699423272215  0.005420293507437446  1.0000
  O   O42       1.0  0.2711940707557866  0.3904735037069699  0.007982166304415202  1.0000
  O   O43       1.0  0.26580952405752095  0.8878106303512722  0.9995075187410544  1.0000
  O   O44       1.0  0.7490906726453536  0.39883359949596653  0.007112496909938207  1.0000
  O   O45       1.0  0.7706065340199213  0.14549888258153043  0.2513184481252514  1.0000
  O   O46       1.0  0.2859519173728896  0.6313403038107755  0.25065339461603225  1.0000
  O   O47       1.0  0.2517388847145168  0.13440321745940925  0.24564945052930523  1.0000
  O   O48       1.0  0.7701273935862342  0.6438081625390579  0.25646544944334854  1.0000
  O   O49       1.0  0.33232404004318483  0.31217562564180784  0.12492057282429636  1.0000
  O   O50       1.0  0.8481859582812228  0.824988550373182  0.1280469133983262  1.0000
  O   O51       1.0  0.6963028834541237  0.31895721463525417  0.13029094056475493  1.0000
  O   O52       1.0  0.19652450558736642  0.8215446271847963  0.12385527174266078  1.0000
  O   O53       1.0  0.3471158170336409  0.7025365693844223  0.3744435275540761  1.0000
  O   O54       1.0  0.841031605457634  0.20207380578612583  0.3842372286048021  1.0000
  O   O55       1.0  0.6926770780087483  0.7097373595081955  0.3773667130647192  1.0000
  O   O56       1.0  0.18232848351649922  0.19522640726205087  0.3747754432836152  1.0000
  O   O57       1.0  0.25970271943239676  0.2624147137223352  0.9894012344618466  1.0000
  O   O58       1.0  0.772854938667063  0.7716957392024654  0.9963720477839622  1.0000
  O   O59       1.0  0.7677800075026445  0.271790662306246  0.9918639039497679  1.0000
  O   O60       1.0  0.2675344678344409  0.7589051862921381  0.997290606521277  1.0000
  O   O61       1.0  0.2658664220807774  0.7593750281618582  0.25209984139273905  1.0000
  O   O62       1.0  0.7819860445062091  0.2748638906538563  0.2585274244752815  1.0000
  O   O63       1.0  0.7634274734975391  0.7713810104496335  0.24915490159126416  1.0000
  O   O64       1.0  0.2598116640310177  0.26309577578261506  0.2601924211592316  1.0000
  O   O65       1.0  0.3850569687606481  0.3163997122761584  0.4621328827344967  1.0000
  O   O66       1.0  0.9073146106012057  0.8249264144728792  0.46827135444347123  1.0000
  O   O67       1.0  0.6353684156995979  0.3264222512863708  0.48362925573697485  1.0000
  O   O68       1.0  0.14372163631986482  0.82098232057232  0.4622824689012732  1.0000
  O   O69       1.0  0.3952715049259183  0.7099643931892028  0.21047256856869578  1.0000
  O   O70       1.0  0.8973523393214529  0.20428064952451688  0.2241282797411587  1.0000
  O   O71       1.0  0.6462454979302383  0.7023179252446847  0.21221657835568888  1.0000
  O   O72       1.0  0.13559800784673773  0.20720198169760312  0.21293382626069748  1.0000
  O   O73       1.0  0.6465513370311496  0.7164798545344582  0.03865418306716089  1.0000
  O   O74       1.0  0.13733578245012512  0.20291433511132068  0.038089059387370526  1.0000
  O   O75       1.0  0.3991931128176098  0.7118914355990108  0.035500828463159134  1.0000
  O   O76       1.0  0.8855456783553729  0.20785215998398873  0.0489151261345178  1.0000
  O   O77       1.0  0.6480845572169761  0.32013777508935704  0.2950669933593142  1.0000
  O   O78       1.0  0.14655230394653282  0.8267536001721248  0.2862136030959675  1.0000
  O   O79       1.0  0.38904484674180406  0.31611831525486744  0.28605154758528384  1.0000
  O   O80       1.0  0.894216465567428  0.818885854019516  0.2918743361695523  1.0000
  O   O81       1.0  0.013999580105845115  0.4104134559614325  0.12934955331730982  1.0000
  O   O82       1.0  0.5243380166897077  0.9157491909992298  0.12691140904963644  1.0000
  O   O83       1.0  0.025888793850580426  0.616687475659706  0.3831648908194269  1.0000
  O   O84       1.0  0.5121975673379745  0.10812275228082  0.3781144317973689  1.0000
  O   O85       1.0  0.11214212124474285  0.31448798947161205  0.11933595440430782  1.0000
  O   O86       1.0  0.6180216109044377  0.8177974323568484  0.14135350109278064  1.0000
  O   O87       1.0  0.916815544279159  0.3149094805673608  0.13634810562349053  1.0000
  O   O88       1.0  0.4270457390071994  0.8190250026137416  0.12709947029336768  1.0000
  O   O89       1.0  0.11859200297878934  0.7159537762950164  0.3671079628513991  1.0000
  O   O90       1.0  0.6085702894627177  0.20567261036217557  0.3930009165231619  1.0000
  O   O91       1.0  0.9301265009954087  0.7139821658210984  0.38188307212961253  1.0000
  O   O92       1.0  0.4218639413798821  0.2103430848107853  0.37715936377341625  1.0000
  O   O93       1.0  0.013727834803429265  0.21892169284325655  0.12379676629344766  1.0000
  O   O94       1.0  0.5218528778846607  0.7210126300736124  0.1269166766457726  1.0000
  O   O95       1.0  0.02246720118492517  0.8130763176164113  0.36850438592832174  1.0000
  O   O96       1.0  0.5109464455886396  0.31400021125784516  0.3753906104473334  1.0000
  Si  Si1       1.0  0.32196056083925256  0.0857785242074365  0.01999363030945897  1.0000
  Si  Si2       1.0  0.8285593845979489  0.5913227061941917  0.02808568449034862  1.0000
  Si  Si3       1.0  0.7038778734020265  0.08983306723236648  0.030150562487518053  1.0000
  Si  Si4       1.0  0.2169845149836123  0.5888735881751468  0.020126679228302802  1.0000
  Si  Si5       1.0  0.3285194556173174  0.9422391730195032  0.2701470558912875  1.0000
  Si  Si6       1.0  0.8216138221650989  0.44382884167943887  0.27918069061870476  1.0000
  Si  Si7       1.0  0.7185615888291368  0.9454240830987763  0.27742410636555953  1.0000
  Si  Si8       1.0  0.20993868416266462  0.43877284367373837  0.2706885989884945  1.0000
  Si  Si9       1.0  0.7194206755255483  0.9402988030789439  0.4839126845892913  1.0000
  Si  Si10      1.0  0.20802242481869768  0.44025151729695605  0.47810310888226687  1.0000
  Si  Si11      1.0  0.3263494333612941  0.9408575359459402  0.47680002061158194  1.0000
  Si  Si12      1.0  0.8175723989106354  0.44606562021029716  0.4871015788701455  1.0000
  Si  Si13      1.0  0.7092538301230176  0.08990346505914382  0.2365071547337213  1.0000
  Si  Si14      1.0  0.21579742136800636  0.586285177259448  0.22681561014797302  1.0000
  Si  Si15      1.0  0.3206151039125716  0.08724798520197594  0.22556828377447713  1.0000
  Si  Si16      1.0  0.8326456401948924  0.5909039106527361  0.23408307785099855  1.0000
  Si  Si17      1.0  0.3117656896933268  0.3213265410518078  0.02162190257210209  1.0000
  Si  Si18      1.0  0.8269398717351333  0.8309007164054818  0.024504155408070803  1.0000
  Si  Si19      1.0  0.7124639266432229  0.32810163172314155  0.026173312178786007  1.0000
  Si  Si20      1.0  0.21950691817702309  0.8228223361257055  0.02057736465004909  1.0000
  Si  Si21      1.0  0.3231706333545104  0.7012680496776698  0.2706703378389992  1.0000
  Si  Si22      1.0  0.8214572440074531  0.2061761858734218  0.2802035021245815  1.0000
  Si  Si23      1.0  0.7189265833891818  0.7061609908898565  0.2748427221838031  1.0000
  Si  Si24      1.0  0.20833424065121386  0.199944017177391  0.27273481378108755  1.0000
  Si  Si25      1.0  0.7199146607709566  0.7106522881202315  0.48089795805257257  1.0000
  Si  Si26      1.0  0.2050706910867068  0.1981196495197741  0.4777482828223006  1.0000
  Si  Si27      1.0  0.3254294804289608  0.7031201367307515  0.4780079213297142  1.0000
  Si  Si28      1.0  0.8123388928155159  0.20404081105303  0.48557173717717145  1.0000
  Si  Si29      1.0  0.718124728885379  0.3264681001104796  0.23416683845558356  1.0000
  Si  Si30      1.0  0.21990335743193684  0.824154401614663  0.22683851159751836  1.0000
  Si  Si31      1.0  0.3147210167893974  0.320531639445792  0.22923981597850351  1.0000
  Si  Si32      1.0  0.8226919901569916  0.8281898096327881  0.2307458715594021  1.0000
  Si  Si33      1.0  0.09965439925678381  0.39239845580210064  0.12432347689728565  1.0000
  Si  Si34      1.0  0.6096284334147453  0.8959276842262628  0.1316629855498098  1.0000
  Si  Si35      1.0  0.9282002001421482  0.39271352564737944  0.13532870468652117  1.0000
  Si  Si36      1.0  0.43871812321311177  0.8970979095930139  0.12582018114422197  1.0000
  Si  Si37      1.0  0.11028048399429378  0.6381286848226227  0.3737850792519972  1.0000
  Si  Si38      1.0  0.5977504136894647  0.12944697998208482  0.38577287904127966  1.0000
  Si  Si39      1.0  0.9402277766607159  0.6360498820711621  0.38084220011258685  1.0000
  Si  Si40      1.0  0.4286791075428095  0.13224980159273225  0.37527563172553213  1.0000
  Si  Si41      1.0  0.09951442847139963  0.23642964506366207  0.12363048685943574  1.0000
  Si  Si42      1.0  0.607537918912516  0.740371273662218  0.12953228404516084  1.0000
  Si  Si43      1.0  0.9282894786125363  0.23687248309819173  0.13379314340053441  1.0000
  Si  Si44      1.0  0.43609750111977225  0.7407912171375635  0.12486643758010633  1.0000
  Si  Si45      1.0  0.10757574569170504  0.7939576567423585  0.3713449197927105  1.0000
  Al  Al1       1.0  0.6027560721510017  0.288724124055152  0.38681796110305333  1.0000
  Si  Si46      1.0  0.9377416344839831  0.7924148703757714  0.37783729008028716  1.0000
  Si  Si47      1.0  0.42818718430937835  0.28851425233077715  0.37502132127263815  1.0000
  H   H1        1.0  0.5284917230756743  0.38491993914712586  0.32233322445336116  1.0000
  O   O97       1.0  0.2916383440387268  0.011036976797569566  0.5018821569205034  1.0000
  O   O98       1.0  0.7928241973626411  0.5217894384683408  0.5019943702884437  1.0000
  O   O99       1.0  0.7392341445585309  0.01425568509451629  0.5114684019204513  1.0000
  O   O100      1.0  0.23995774107927578  0.5127534188899817  0.49935603028569187  1.0000
  O   O101      1.0  0.29629426776768986  0.013955699215064527  0.7534747832913496  1.0000
  O   O102      1.0  0.8037962996890057  0.5170466380958786  0.7592525439901516  1.0000
  O   O103      1.0  0.7475160700089232  0.019661802873184097  0.762132325705025  1.0000
  O   O104      1.0  0.23940147570777437  0.513296156678907  0.7537857624622062  1.0000
  O   O105      1.0  0.343215061937658  0.09180796799553478  0.624485700626454  1.0000
  O   O106      1.0  0.8541217458066589  0.5926606061599388  0.6295321481208304  1.0000
  O   O107      1.0  0.6843234609023704  0.09107181634765628  0.6352105172481042  1.0000
  O   O108      1.0  0.19427481048537115  0.5928243160744112  0.6254357695719925  1.0000
  O   O109      1.0  0.35275178728054085  0.9348582321923732  0.8748651908058291  1.0000
  O   O110      1.0  0.8464957086573167  0.4354263323117873  0.8847723368328442  1.0000
  O   O111      1.0  0.695489324040053  0.933761273603602  0.878013336916508  1.0000
  O   O112      1.0  0.18704982233894007  0.43141359006283275  0.8750999695372158  1.0000
  O   O113      1.0  0.3933503144869601  0.10259086959265931  0.9608888168698266  1.0000
  O   O114      1.0  0.8986121244460347  0.6087347848898889  0.9668390093387416  1.0000
  O   O115      1.0  0.630324885239687  0.10667690116178144  0.974418703528611  1.0000
  O   O116      1.0  0.14757015274251656  0.6132910591916452  0.9625960725039495  1.0000
  O   O117      1.0  0.40154155391241486  0.9299206228738639  0.7124347590475102  1.0000
  O   O118      1.0  0.8934483869820992  0.41971687501005844  0.7212894126151543  1.0000
  O   O119      1.0  0.6440066176612215  0.9382562312711066  0.7152488844575361  1.0000
  O   O120      1.0  0.13830586417404292  0.42530736381592743  0.7121828353848552  1.0000
  O   O121      1.0  0.6512307124931564  0.9127616709878246  0.5419266164170586  1.0000
  O   O122      1.0  0.13595913646645433  0.42567351768232836  0.536616916498677  1.0000
  O   O123      1.0  0.3986003940929389  0.9268745396736296  0.5357375806229846  1.0000
  O   O124      1.0  0.8919072062520285  0.4346178776508238  0.5447128582300833  1.0000
  O   O125      1.0  0.6463635813265158  0.1085764082045172  0.7997342546816884  1.0000
  O   O126      1.0  0.1451107421232534  0.6088268279401863  0.7866522236987676  1.0000
  O   O127      1.0  0.3912881991069214  0.10881541597741991  0.7848497070116863  1.0000
  O   O128      1.0  0.8979877689880341  0.613143442140406  0.7911419349811105  1.0000
  O   O129      1.0  0.254255782825586  0.13327619193023466  0.9962405110746447  1.0000
  O   O130      1.0  0.7626599343426698  0.6427660314346195  0.012094482415408336  1.0000
  O   O131      1.0  0.7664513438375561  0.14296208055017517  0.009184430936140615  1.0000
  O   O132      1.0  0.2891785475667137  0.632037412066767  0.9981331503335393  1.0000
  O   O133      1.0  0.26689724216552096  0.8895384165138217  0.7471692098550459  1.0000
  O   O134      1.0  0.752663949794834  0.39813644940353304  0.7608485158691473  1.0000
  O   O135      1.0  0.7796126416980866  0.8945876376665391  0.7450487264434096  1.0000
  O   O136      1.0  0.27584215189787725  0.39089883485058424  0.7456846463112519  1.0000
  O   O137      1.0  0.7923993098775111  0.8981950787852718  0.502952878182271  1.0000
  O   O138      1.0  0.2736687924307138  0.38971326642777304  0.5039250645375773  1.0000
  O   O139      1.0  0.2645443433884315  0.8866651617158384  0.49591835444496  1.0000
  O   O140      1.0  0.7556662290094365  0.39658241525253  0.5222333048767643  1.0000
  O   O141      1.0  0.7795552970628357  0.14322387123594732  0.7464895051491561  1.0000
  O   O142      1.0  0.28649215380933946  0.6330175061636708  0.7495075378815222  1.0000
  O   O143      1.0  0.2515066561299464  0.1346875877710905  0.7469156436065156  1.0000
  O   O144      1.0  0.758299649537291  0.6358326121007785  0.7484821035432403  1.0000
  O   O145      1.0  0.33437326859657196  0.31448249162257547  0.6248955120174275  1.0000
  O   O146      1.0  0.8465995513305541  0.8207026352896362  0.6257841069571703  1.0000
  O   O147      1.0  0.6951638363370595  0.32003968936129235  0.6399039768094826  1.0000
  O   O148      1.0  0.19544453549175558  0.8238567702406908  0.6238431502998898  1.0000
  O   O149      1.0  0.3489419690814128  0.7056447141480816  0.872562702461989  1.0000
  O   O150      1.0  0.8451010943292767  0.1981565833848422  0.8839099465705331  1.0000
  O   O151      1.0  0.6986813224072271  0.7032322450017049  0.8786956838066406  1.0000
  O   O152      1.0  0.18085368365329346  0.19717778833356503  0.8736916588310844  1.0000
  O   O153      1.0  0.2565033799503788  0.2610975262616433  0.49539984363745  1.0000
  O   O154      1.0  0.7787092927936874  0.7709255328812739  0.48323933707917893  1.0000
  O   O155      1.0  0.7651499843071156  0.2692498556944262  0.5024044210650573  1.0000
  O   O156      1.0  0.26582721326389647  0.7581729428691728  0.5004815144972534  1.0000
  O   O157      1.0  0.267124127883498  0.7604604798456084  0.7483369387435518  1.0000
  O   O158      1.0  0.7680106377966213  0.2704344917800866  0.7750091185548172  1.0000
  O   O159      1.0  0.7700945605585453  0.765682626660682  0.7525379776656687  1.0000
  O   O160      1.0  0.2598732509535763  0.2632173940347787  0.7582512772882707  1.0000
  O   O161      1.0  0.3859258164312285  0.32104895120787474  0.9625815654274765  1.0000
  O   O162      1.0  0.9011993743757817  0.8270158017117399  0.9663708724626402  1.0000
  O   O163      1.0  0.6348109231821742  0.3227709002827288  0.974437291188325  1.0000
  O   O164      1.0  0.1451067361016443  0.8227501539761053  0.962437097649646  1.0000
  O   O165      1.0  0.39674577371034087  0.7106215068463668  0.7075593892788692  1.0000
  O   O166      1.0  0.8941075545849919  0.21896818278850755  0.7238531275518665  1.0000
  O   O167      1.0  0.6432772040932299  0.7067053996196118  0.7178334602488556  1.0000
  O   O168      1.0  0.13551691417434455  0.20682814010230277  0.7106800317825442  1.0000
  O   O169      1.0  0.6561380893414767  0.7357692827416427  0.5472936017444379  1.0000
  O   O170      1.0  0.13129619828393008  0.20568881812269862  0.5356005427903956  1.0000
  O   O171      1.0  0.4013355373345922  0.7150635332179947  0.5320484896279312  1.0000
  O   O172      1.0  0.8837285682964305  0.20350625082065454  0.5494194196946653  1.0000
  O   O173      1.0  0.6384978238897149  0.32455889808334926  0.7987090333217003  1.0000
  O   O174      1.0  0.1462446732336468  0.8260881988487041  0.7864171809818328  1.0000
  O   O175      1.0  0.3896043677257299  0.3171430368826134  0.7859471816988908  1.0000
  O   O176      1.0  0.8948905185463695  0.8235821559395261  0.7901503970493126  1.0000
  O   O177      1.0  0.014412725847762783  0.41181763959193435  0.628249236740381  1.0000
  O   O178      1.0  0.52312142359812  0.921439841467564  0.6209711605362049  1.0000
  O   O179      1.0  0.022080702238558257  0.6181807403114837  0.8777258252904032  1.0000
  O   O180      1.0  0.5156717020551861  0.11571830688437935  0.8706964348310411  1.0000
  O   O181      1.0  0.11340784073158447  0.3162807107405739  0.6235828415313184  1.0000
  O   O182      1.0  0.6088831297738501  0.8230442499752745  0.6590498911232854  1.0000
  O   O183      1.0  0.9138557603666996  0.3189858570017883  0.6156661874923528  1.0000
  O   O184      1.0  0.42931100803266564  0.8212284518045415  0.6268119382432659  1.0000
  O   O185      1.0  0.11399485260145213  0.7175756364766036  0.8694948839845845  1.0000
  O   O186      1.0  0.607581961397775  0.2153942779526167  0.8842666038967848  1.0000
  O   O187      1.0  0.9290806638436758  0.7179374607277891  0.8822582117950425  1.0000
  O   O188      1.0  0.42033252381019104  0.2127770828686038  0.8797172940671456  1.0000
  O   O189      1.0  0.011270844633757241  0.22346399805769862  0.6256564826159837  1.0000
  O   O190      1.0  0.523792688673367  0.7225414780187703  0.6210647784406386  1.0000
  O   O191      1.0  0.021627831534523575  0.8172501713397952  0.8722699649544545  1.0000
  O   O192      1.0  0.5123198704750498  0.3128929802805476  0.8809570301154412  1.0000
  Si  Si48      1.0  0.3170556600979325  0.08518916536786932  0.5225207943748991  1.0000
  Si  Si49      1.0  0.828860351205179  0.59206788689016  0.5265528390340934  1.0000
  Si  Si50      1.0  0.7043299445586608  0.08547529303712147  0.5308435306942922  1.0000
  Si  Si51      1.0  0.21892645707107186  0.5876534955467684  0.5228224043850136  1.0000
  Si  Si52      1.0  0.3292434230885289  0.9420251760774214  0.7721171596786933  1.0000
  Si  Si53      1.0  0.8242883687795327  0.4418937663918381  0.7811845371219901  1.0000
  Si  Si54      1.0  0.7171044505606256  0.9460244394215466  0.775299177795908  1.0000
  Si  Si55      1.0  0.20968929916558157  0.439336991612839  0.7722846191630426  1.0000
  Si  Si56      1.0  0.716434359934892  0.9433305313820536  0.9814637811556951  1.0000
  Si  Si57      1.0  0.20719064933583284  0.4403017226702976  0.9791083866985757  1.0000
  Si  Si58      1.0  0.32928050669076686  0.9400491345206338  0.9779624664568212  1.0000
  Si  Si59      1.0  0.8200260793426862  0.44371756958552244  0.9866904408139928  1.0000
  Si  Si60      1.0  0.7144350434287196  0.09065624835565123  0.735808152749778  1.0000
  Si  Si61      1.0  0.2157733957779104  0.5877021123802656  0.7292875650405962  1.0000
  Si  Si62      1.0  0.32044666822512247  0.08749177440892217  0.7277079992436903  1.0000
  Si  Si63      1.0  0.8297531862611482  0.5894760262419791  0.7320201714550834  1.0000
  Si  Si64      1.0  0.311912427747734  0.31857216924392157  0.5214496903272339  1.0000
  Si  Si65      1.0  0.8300053917171887  0.8282289245582417  0.5207593088368879  1.0000
  Si  Si66      1.0  0.7121858155150904  0.3280936922674548  0.5350026765446079  1.0000
  Si  Si67      1.0  0.21766413718556038  0.8230149102878813  0.5205244411949991  1.0000
  Si  Si68      1.0  0.3247400346993505  0.7029741791612617  0.769872183682341  1.0000
  Si  Si69      1.0  0.8209650037795547  0.20763258421182182  0.7818075924064296  1.0000
  Si  Si70      1.0  0.7185477633783269  0.7043309762665904  0.7746989687173576  1.0000
  Si  Si71      1.0  0.20755322673682974  0.2003661884031308  0.771872321006641  1.0000
  Si  Si72      1.0  0.7211593550553748  0.7087794438699548  0.982006835922469  1.0000
  Si  Si73      1.0  0.2086843216218997  0.1989045727004798  0.97525690077255  1.0000
  Si  Si74      1.0  0.32635901971364  0.7020251013770447  0.9762639057723281  1.0000
  Si  Si75      1.0  0.8154457207861562  0.20556287568297554  0.9842982444136945  1.0000
  Si  Si76      1.0  0.7141539129270238  0.3282423614834936  0.7430739729085398  1.0000
  Si  Si77      1.0  0.21957125385199455  0.8251321635492329  0.726750155762489  1.0000
  Si  Si78      1.0  0.3145923103033192  0.3210304032098644  0.7291742570922081  1.0000
  Si  Si79      1.0  0.8226738819738846  0.826822342410878  0.7282571099492963  1.0000
  Si  Si80      1.0  0.09997195237048141  0.39408693747824664  0.625218649509854  1.0000
  Si  Si81      1.0  0.6074620138567106  0.8994454272619858  0.6331910129285244  1.0000
  Si  Si82      1.0  0.9277870715698333  0.39616120256883125  0.6274537190084348  1.0000
  Si  Si83      1.0  0.43829591212892766  0.8998792216379765  0.6240308083449351  1.0000
  Si  Si84      1.0  0.10715508880829037  0.6395897978730437  0.8744686009384192  1.0000
  Si  Si85      1.0  0.6002318998160789  0.1370077958169461  0.8822389013932079  1.0000
  Si  Si86      1.0  0.9370667021894942  0.6398196549828726  0.8800689093471973  1.0000
  Si  Si87      1.0  0.43019281414203386  0.13493396804088095  0.8741035658269207  1.0000
  Si  Si88      1.0  0.09749224851427199  0.23848970798821229  0.6240634557289131  1.0000
  Si  Si89      1.0  0.607980650152133  0.7466264444757627  0.6352070460879039  1.0000
  Si  Si90      1.0  0.925458523892419  0.2414259315834427  0.6283500874824434  1.0000
  Si  Si91      1.0  0.43809282824167856  0.74315346130156  0.6233391207059656  1.0000
  Si  Si92      1.0  0.10658211257781113  0.7958803675092885  0.8730376280720433  1.0000
  Si  Si93      1.0  0.5983595475097756  0.2937849906196983  0.8846794846988355  1.0000
  Si  Si94      1.0  0.936578651096509  0.7963409722591115  0.8773550653024179  1.0000
  Si  Si95      1.0  0.4273732246672948  0.2909166582299418  0.8766743349219195  1.0000
  H   H2        1.0  0.5283727343110012  0.3968401806307681  0.0947901240287482  1.0000
  C   C1        1.0  0.49486470058171084  0.42871464691804545  0.05395555480348731  1.0000
  H   H3        1.0  0.5301910206443845  0.4612396152342839  0.015919381916901454  1.0000
  H   H4        1.0  0.46441476196362297  0.39859452513527605  0.0071144479903216505  1.0000
  C   C2        1.0  0.44204091561812003  0.4653466819850825  0.11011460758904945  1.0000
  O   O193      1.0  0.4190921603635753  0.44337812583878555  0.180911761932133  1.0000
  C   C3        1.0  0.41594495768887174  0.528237354541746  0.07282705987333166  1.0000
  H   H5        1.0  0.3865026085299641  0.5556394290229807  0.12321132926886649  1.0000
  H   H6        1.0  0.4619917296637087  0.5569753530294804  0.04821638147989031  1.0000
  H   H7        1.0  0.3801518978346523  0.5182727719581379  0.016376758643731726  1.0000
  O   O194      1.0  0.37354905575778924  0.4888803620541225  0.855810273871004  1.0000
  H   H8        1.0  0.33598579683847946  0.507124581833371  0.8177247477597661  1.0000
  H   H9        1.0  0.40627504729199165  0.46420541657614306  0.8158425025598219  1.0000
  O   O195      1.0  0.6229375040588889  0.4585291701932494  0.1853785627845098  1.0000
  H   H10       1.0  0.6151412411646587  0.508464297204187  0.16593078993175361  1.0000
  H   H11       1.0  0.6734724848017591  0.4484046865538586  0.20366327863286027  1.0000
  O   O196      1.0  0.4831694291088777  0.44344416091665184  0.7526068210678775  1.0000
  H   H12       1.0  0.4947953766223677  0.41436332333176945  0.7032255609454492  1.0000
  H   H13       1.0  0.4916625938205978  0.48841648443359365  0.7310348862411377  1.0000
  O   O197      1.0  0.5236439666600236  0.3877040749483741  0.5864226938238754  1.0000
  H   H14       1.0  0.48214644890752817  0.4022692561401535  0.549826291148692  1.0000
  H   H15       1.0  0.5538946469150721  0.3578898355346571  0.550847788348702  1.0000
  O   O198      1.0  0.5436216548377079  0.4306540248089926  0.31078549980848214  1.0000
  H   H16       1.0  0.49896113040768547  0.4587633708192322  0.3207560991037979  1.0000
  H   H17       1.0  0.5856144257233686  0.4444414731332248  0.23881456498375386  1.0000
  O   O199      1.0  0.4779450874337663  0.579901054254666  0.895314354282047  1.0000
  H   H18       1.0  0.4350618441175353  0.550782905749363  0.8878797162083881  1.0000
  H   H19       1.0  0.5194835641717938  0.5488359096484753  0.8998278486357169  1.0000
  O   O200      1.0  0.5028879169521945  0.573814050513425  0.7282623755942182  1.0000
  H   H20       1.0  0.46175834163045715  0.583653756860526  0.6883730851569977  1.0000
  H   H21       1.0  0.48960351867224805  0.58592640700123  0.7911064552493509  1.0000
  O   O201      1.0  0.42557017247974643  0.49888892305626004  0.3401651462566192  1.0000
  H   H22       1.0  0.618559125468623  0.5018387022798338  0.8389857895785165  1.0000
  H   H23       1.0  0.3957574557551071  0.4760540141911029  0.2963128974365537  1.0000
  O   O202      1.0  0.5824224754933988  0.4841145944989388  0.8800848125923143  1.0000
  H   H24       1.0  0.414080493948476  0.48542183855020277  0.4020956867111506  1.0000
  H   H25       1.0  0.551800213171501  0.45698950617624157  0.8411771634876696  1.0000
  O   O203      1.0  0.6112552782803802  0.49010238473608986  0.5667318270522016  1.0000
  H   H26       1.0  0.6295439042820145  0.5063148635181459  0.624983761240818  1.0000
  H   H27       1.0  0.5812727794704089  0.4504916970420335  0.5797599900490015  1.0000
  O   O204      1.0  0.6399639334129843  0.5427552570197941  0.7226085229095478  1.0000
  H   H28       1.0  0.5909038430418221  0.5645532428565594  0.722123762529662  1.0000
  H   H29       1.0  0.677374952142182  0.5759239710117064  0.7296569760791807  1.0000
  O   O205      1.0  0.49987430154687645  0.5970742433027678  0.268537434482232  1.0000
  H   H30       1.0  0.4671745430267197  0.5668216440118509  0.300849024619841  1.0000
  H   H31       1.0  0.49873743865709186  0.6402669399369554  0.2978210820503577  1.0000
  O   O206      1.0  0.5935678150567302  0.5707792950614768  0.13868290008755352  1.0000
  H   H32       1.0  0.5527392042798001  0.5828398048135174  0.17989089251558285  1.0000
  H   H33       1.0  0.6226975745793039  0.4448799300999449  0.3786372463189263  1.0000
  O   O207      1.0  0.665102721873309  0.4695072248691623  0.4005642624470932  1.0000
  H   H34       1.0  0.6318404609452231  0.6015270283328757  0.15492480733406597  1.0000
  H   H35       1.0  0.6544104272230413  0.47615831384439083  0.4641054082654356  1.0000
  O   O208      1.0  0.40799083318425666  0.45769990003328626  0.5074550274145937  1.0000
  H   H36       1.0  0.36114823050741074  0.43515804745868003  0.5086810002148543  1.0000
  H   H37       1.0  0.401903059221507  0.4953340681456999  0.5486399552286187  1.0000
  O   O209      1.0  0.5179743966338554  0.7113075589705157  0.35580581525720517  1.0000
  H   H38       1.0  0.5683544914502757  0.7119056747463741  0.37657657685947954  1.0000
  H   H39       1.0  0.48748513254475234  0.7148178135314456  0.40816352593079597  1.0000
  O   O210      1.0  0.40409769598012574  0.5672766500704909  0.5999790105848691  1.0000
  H   H40       1.0  0.36388988561538727  0.5935900996739082  0.5775564139891968  1.0000
  H   H41       1.0  0.4459678809963926  0.5738553880297824  0.5550878265208333  1.0000
  O   O211      1.0  0.6392047544749947  0.5791509261297315  0.3219699432782642  1.0000
  H   H42       1.0  0.5863697199755212  0.5797065389622412  0.3068885051105619  1.0000
  H   H43       1.0  0.651033103011143  0.5345850677757901  0.3457590518484785  1.0000
  O   O212      1.0  0.50532806669419  0.5647926016667899  0.48952911835279045  1.0000
  H   H44       1.0  0.5371817561891771  0.6029593994368728  0.4816648797434678  1.0000
  H   H45       1.0  0.5401673913574766  0.5340780010840056  0.5185176248618336  1.0000
  O   O213      1.0  0.6324888501665992  0.6248164370251217  0.47809219894986593  1.0000
  H   H46       1.0  0.6378839587437285  0.608379662585889  0.4141872700164734  1.0000
  H   H47       1.0  0.6468798462290097  0.5883457770324384  0.5150160997158657  1.0000
