data_image0
_chemical_formula_structural       O96Si45AlSi2HO96Si48NH3
_chemical_formula_sum              "O192 Si95 Al1 H4 N1"
_cell_length_a       18.34492536333329
_cell_length_b       20.533665782673353
_cell_length_c       15.151801307582494
_cell_angle_alpha    90.0
_cell_angle_beta     90.0
_cell_angle_gamma    90.0

_space_group_name_H-M_alt    "P 1"
_space_group_IT_number       1

loop_
  _space_group_symop_operation_xyz
  'x, y, z'

loop_
  _atom_site_type_symbol
  _atom_site_label
  _atom_site_symmetry_multiplicity
  _atom_site_fract_x
  _atom_site_fract_y
  _atom_site_fract_z
  _atom_site_occupancy
  O   O1        1.0  0.28349887922656647  0.9927824722462167  0.010879641903369652  1.0000
  O   O2        1.0  0.7647479764644228  0.503746964593543  0.9931265736735947  1.0000
  O   O3        1.0  0.7138043622773662  0.003342875584247642  0.010014174508846896  1.0000
  O   O4        1.0  0.21410544181610802  0.4916924199925072  0.008468503500854041  1.0000
  O   O5        1.0  0.2821442833637962  0.004782345654496201  0.24547543849711678  1.0000
  O   O6        1.0  0.7836991813951814  0.49743638511049026  0.24571510175076458  1.0000
  O   O7        1.0  0.7127415103107416  0.998762671364078  0.25856460631116085  1.0000
  O   O8        1.0  0.2149351301194697  0.5037867631374879  0.2595675029101544  1.0000
  O   O9        1.0  0.31507182806819417  0.09011940924651979  0.11445188296735184  1.0000
  O   O10       1.0  0.827668663637514  0.5780585057547696  0.1211037343184887  1.0000
  O   O11       1.0  0.6770899921362811  0.09148555644580218  0.12992407965479666  1.0000
  O   O12       1.0  0.1755587458773292  0.5832134547599939  0.12628015449506202  1.0000
  O   O13       1.0  0.3296555810517161  0.9218043032516765  0.36593434255406354  1.0000
  O   O14       1.0  0.8270527249091623  0.41836626985761516  0.3787588976056638  1.0000
  O   O15       1.0  0.6638628519220725  0.9183405739423188  0.38321816938651715  1.0000
  O   O16       1.0  0.16157291792117875  0.4181687444842636  0.37500491886443416  1.0000
  O   O17       1.0  0.37432147059726595  0.09413240433819658  0.4490867449928084  1.0000
  O   O18       1.0  0.8748941013452958  0.601632330084201  0.4663132169284838  1.0000
  O   O19       1.0  0.6257846108736678  0.10038094083226312  0.47175935883101155  1.0000
  O   O20       1.0  0.12398186991515416  0.5942872952717972  0.45498449590611273  1.0000
  O   O21       1.0  0.3763906929706571  0.9150748458102974  0.2038055414873112  1.0000
  O   O22       1.0  0.8814216340350357  0.40591260412123314  0.2180268730389708  1.0000
  O   O23       1.0  0.609518647175804  0.9124347862820206  0.2204386450295204  1.0000
  O   O24       1.0  0.11875450441212136  0.4052573582366258  0.21296609983825393  1.0000
  O   O25       1.0  0.613982423308885  0.9071984509321617  0.03851183223396576  1.0000
  O   O26       1.0  0.1329744984885977  0.38511334233718375  0.036982256341995604  1.0000
  O   O27       1.0  0.37812033206002726  0.9003070886446054  0.03019434856046136  1.0000
  O   O28       1.0  0.870613058580359  0.4111177053988719  0.044549006834072424  1.0000
  O   O29       1.0  0.6286417023560218  0.10071003306895972  0.29669263797369955  1.0000
  O   O30       1.0  0.11414842189466996  0.6035715571282878  0.2784259491238733  1.0000
  O   O31       1.0  0.377572140677352  0.10040303576673815  0.2680196920195715  1.0000
  O   O32       1.0  0.8821207309103838  0.5926423581058041  0.2856533756045253  1.0000
  O   O33       1.0  0.23332615615625793  0.12401969949997167  0.4954784046859853  1.0000
  O   O34       1.0  0.7405685949071351  0.6338644578983429  0.5107414790429773  1.0000
  O   O35       1.0  0.769357892739636  0.11960919233780586  0.5105266181209052  1.0000
  O   O36       1.0  0.26218179386073404  0.6232201963079732  0.49802773325859995  1.0000
  O   O37       1.0  0.24133256758018057  0.8811692267470188  0.2367022347504786  1.0000
  O   O38       1.0  0.7467952798206814  0.37577591218568174  0.2402815147911204  1.0000
  O   O39       1.0  0.7452373078238519  0.8775753039287041  0.24267733554292986  1.0000
  O   O40       1.0  0.25797380072524306  0.3785501971381557  0.25329022418472635  1.0000
  O   O41       1.0  0.7630742623777267  0.8881385113119189  0.02558262955877199  1.0000
  O   O42       1.0  0.26506896614140535  0.373497039991342  0.9841657156710512  1.0000
  O   O43       1.0  0.23906518904490798  0.8730578704133367  0.9930625938219374  1.0000
  O   O44       1.0  0.737718921825091  0.38017431873207685  0.9956306266008542  1.0000
  O   O45       1.0  0.7694834277284347  0.11802751031649794  0.25344685242659837  1.0000
  O   O46       1.0  0.2552635405843446  0.6217200462458254  0.2645139213906088  1.0000
  O   O47       1.0  0.24338682396191125  0.12846177774188824  0.256491820418418  1.0000
  O   O48       1.0  0.7441253774346026  0.6210584113412841  0.24270208837544044  1.0000
  O   O49       1.0  0.33146824637149247  0.3190891109919956  0.11977995375980606  1.0000
  O   O50       1.0  0.8379454642385574  0.8152989932331711  0.12840192136273548  1.0000
  O   O51       1.0  0.6827244794919286  0.3062202432117975  0.11564767214331818  1.0000
  O   O52       1.0  0.17494156702400826  0.8060184535566756  0.12232992384030499  1.0000
  O   O53       1.0  0.330894923788179  0.6995661496604827  0.3771944862516066  1.0000
  O   O54       1.0  0.8189951309384914  0.18666242942525313  0.37989863404025903  1.0000
  O   O55       1.0  0.6723983197366742  0.6907754786760395  0.3686772494307002  1.0000
  O   O56       1.0  0.18325356868005066  0.20977873291552068  0.37472063253355115  1.0000
  O   O57       1.0  0.26288666726544385  0.24089717405325356  0.007182517788366649  1.0000
  O   O58       1.0  0.7540992479397239  0.7575772268157921  0.9961140851305558  1.0000
  O   O59       1.0  0.7525711953886882  0.25319294981351964  0.981408601402295  1.0000
  O   O60       1.0  0.25463324693250394  0.7448397661612656  0.0005808789489010202  1.0000
  O   O61       1.0  0.25089404938105986  0.7559553970678811  0.2606004434617288  1.0000
  O   O62       1.0  0.7484684335344245  0.2490861234488304  0.2542289884749419  1.0000
  O   O63       1.0  0.7471786207098221  0.746919774205228  0.23979125361034034  1.0000
  O   O64       1.0  0.235274631240896  0.25252744224440693  0.21680502293519896  1.0000
  O   O65       1.0  0.37952706059606045  0.30117256682040233  0.4649568857845613  1.0000
  O   O66       1.0  0.877585919873961  0.8078726441528878  0.4747656403334759  1.0000
  O   O67       1.0  0.6231859614348816  0.30825958535572856  0.47790572638886725  1.0000
  O   O68       1.0  0.12126573458000628  0.8158492471488423  0.4586646893608734  1.0000
  O   O69       1.0  0.3706970203101638  0.6905033397380076  0.2134111538528301  1.0000
  O   O70       1.0  0.8782926357500533  0.20134029665022365  0.21945653605792548  1.0000
  O   O71       1.0  0.6205222858389225  0.687882069840578  0.21378646104466573  1.0000
  O   O72       1.0  0.11605012709701053  0.17920656247872938  0.21787015965870676  1.0000
  O   O73       1.0  0.6261699414138578  0.6980010452928486  0.04121276852327151  1.0000
  O   O74       1.0  0.13300523668942607  0.1873335745654272  0.042409067209615105  1.0000
  O   O75       1.0  0.3846724633780562  0.6838428806924823  0.0352021742611606  1.0000
  O   O76       1.0  0.8738504307050069  0.18463679111788875  0.03922607998446815  1.0000
  O   O77       1.0  0.6187527883153796  0.3158819048020726  0.2717441448984354  1.0000
  O   O78       1.0  0.12162384178785193  0.812886485864818  0.2788530488375398  1.0000
  O   O79       1.0  0.3621945730714437  0.29392785311100095  0.28658506086843755  1.0000
  O   O80       1.0  0.8635036052892228  0.81683780273433  0.2975704715546708  1.0000
  O   O81       1.0  0.0005784264470875959  0.3930479430911066  0.11853118870435808  1.0000
  O   O82       1.0  0.4967743372897597  0.8940185938689205  0.12185895541515618  1.0000
  O   O83       1.0  0.9980402384153682  0.6023143091398754  0.3789365015713819  1.0000
  O   O84       1.0  0.506556403253281  0.09217649347332367  0.374810074044332  1.0000
  O   O85       1.0  0.09225777573250799  0.28926086130280354  0.14332094685753766  1.0000
  O   O86       1.0  0.597022767500099  0.7991593889604823  0.1318072735682306  1.0000
  O   O87       1.0  0.9001692300698177  0.29697177817832826  0.11756059387530363  1.0000
  O   O88       1.0  0.39185880768793824  0.7961185052400174  0.12340518675256658  1.0000
  O   O89       1.0  0.08487998120244575  0.7085060653064702  0.36240292810941777  1.0000
  O   O90       1.0  0.5730325096340385  0.20372814451523438  0.3840476839600557  1.0000
  O   O91       1.0  0.8925169607244989  0.706601777956425  0.37071631920021586  1.0000
  O   O92       1.0  0.4294904396693814  0.19739860348853325  0.3656134189951223  1.0000
  O   O93       1.0  0.9990864218304869  0.1938868730082969  0.1250285541331625  1.0000
  O   O94       1.0  0.49373116491950947  0.7055407599077927  0.12702271307087767  1.0000
  O   O95       1.0  0.998442953054631  0.8067977133425002  0.3811057743418446  1.0000
  O   O96       1.0  0.4887038967146285  0.31658834563701793  0.35998690249920334  1.0000
  Si  Si1       1.0  0.30278057282816573  0.06957217455080293  0.013741219659197041  1.0000
  Si  Si2       1.0  0.7998595807496836  0.5731720222080925  0.019360462432489754  1.0000
  Si  Si3       1.0  0.6940748761752633  0.0807772717037013  0.022143732166821334  1.0000
  Si  Si4       1.0  0.19257445206406082  0.5683296549925949  0.02074417843921352  1.0000
  Si  Si5       1.0  0.3076106807869097  0.9305368672223682  0.2637891098796168  1.0000
  Si  Si6       1.0  0.8085842823677073  0.4250137317109769  0.27286877355836064  1.0000
  Si  Si7       1.0  0.6852397685479543  0.9250971410097085  0.2787184331599319  1.0000
  Si  Si8       1.0  0.19225544013656085  0.4260123843732455  0.27218962922488454  1.0000
  Si  Si9       1.0  0.6875980910345898  0.9289882908338877  0.4839779403872093  1.0000
  Si  Si10      1.0  0.1916109654512819  0.4247838638417929  0.47613861438307553  1.0000
  Si  Si11      1.0  0.31052358388908347  0.9252780624311109  0.47417547287955575  1.0000
  Si  Si12      1.0  0.8040725943471374  0.4320925992419101  0.4846364053312426  1.0000
  Si  Si13      1.0  0.6980006702885468  0.07852522326337749  0.2343615401175407  1.0000
  Si  Si14      1.0  0.18989892305383638  0.5786095242684509  0.23249332594119493  1.0000
  Si  Si15      1.0  0.305086914182084  0.07781694447117701  0.2182910317299904  1.0000
  Si  Si16      1.0  0.8099464181902899  0.5712695874254555  0.22392581324981367  1.0000
  Si  Si17      1.0  0.30924114040490214  0.3094228890859449  0.015696478931582977  1.0000
  Si  Si18      1.0  0.8066852378466741  0.8181141544718807  0.024666328604307113  1.0000
  Si  Si19      1.0  0.6972629458371272  0.31066196740100493  0.00950197914276709  1.0000
  Si  Si20      1.0  0.19785285947549364  0.8065631453870762  0.019440298484682088  1.0000
  Si  Si21      1.0  0.3001715259635944  0.6905186774766916  0.27717709563009557  1.0000
  Si  Si22      1.0  0.8012455351483216  0.19275244819362713  0.2751917006668614  1.0000
  Si  Si23      1.0  0.6971040964582236  0.6853676790568551  0.2673488608890897  1.0000
  Si  Si24      1.0  0.19566274644945186  0.1923191232289485  0.26897635253179364  1.0000
  Si  Si25      1.0  0.6951605404451113  0.6960095289979596  0.4713724021991908  1.0000
  Si  Si26      1.0  0.19906417702298362  0.1954756682261254  0.47812549365827656  1.0000
  Si  Si27      1.0  0.3028518432189744  0.6907279494131047  0.47853407478169074  1.0000
  Si  Si28      1.0  0.8030736837690313  0.18874605786514437  0.4851739493390249  1.0000
  Si  Si29      1.0  0.6982401365122024  0.31308384864356237  0.21879563905982474  1.0000
  Si  Si30      1.0  0.1994053863697663  0.8138321601640648  0.22480956031910102  1.0000
  Si  Si31      1.0  0.29569628944046894  0.3099746892428152  0.22014989850287403  1.0000
  Si  Si32      1.0  0.7953824908529777  0.8145110243351065  0.22714119662311724  1.0000
  Si  Si33      1.0  0.0879470004944652  0.36723484300416287  0.12943887001861162  1.0000
  Si  Si34      1.0  0.5822608726089228  0.875212111670995  0.13050484360631417  1.0000
  Si  Si35      1.0  0.914264057106662  0.37809725073791534  0.12609775373993748  1.0000
  Si  Si36      1.0  0.4119950367912918  0.8749876554025049  0.12384773083454607  1.0000
  Si  Si37      1.0  0.08056813809415483  0.6293696365168691  0.36930537936764946  1.0000
  Si  Si38      1.0  0.5859368962865544  0.12874536957890517  0.38650009600306506  1.0000
  Si  Si39      1.0  0.9125276493879547  0.6279290481527123  0.3728588954748766  1.0000
  Si  Si40      1.0  0.42435133127113006  0.11525973564822821  0.3631393356014046  1.0000
  Si  Si41      1.0  0.08651714676213941  0.21408207216995437  0.12773028768741088  1.0000
  Si  Si42      1.0  0.5819766332404475  0.7198230635696876  0.12545413191557264  1.0000
  Si  Si43      1.0  0.9122911970768068  0.21794320299964287  0.12433655654243689  1.0000
  Si  Si44      1.0  0.4074547915545095  0.7215893580240662  0.12570219747053205  1.0000
  Si  Si45      1.0  0.08466967018053713  0.7869983446227143  0.37185919651549154  1.0000
  Al  Al1       1.0  0.592822563439634  0.285917089142163  0.3738733207361364  1.0000
  Si  Si46      1.0  0.9120340594811733  0.7858059764280074  0.3777468258599548  1.0000
  Si  Si47      1.0  0.41213317799109545  0.27119873718305887  0.3715591780617302  1.0000
  H   H1        1.0  0.48593752132770895  0.35331908324532263  0.31924111871631766  1.0000
  O   O97       1.0  0.2811875403053  0.9991192881551323  0.49994468751442595  1.0000
  O   O98       1.0  0.7797684273271313  0.5068587991133158  0.47919476124376764  1.0000
  O   O99       1.0  0.716351349472713  9.217902378066967e-06  0.5020464349801919  1.0000
  O   O100      1.0  0.21224428679237364  0.4995577851790916  0.49068550392614907  1.0000
  O   O101      1.0  0.2755510605730537  0.003847566633392585  0.7426444890330566  1.0000
  O   O102      1.0  0.7971360777094443  0.49447690770186914  0.7519590785749201  1.0000
  O   O103      1.0  0.7301619971031683  0.9922010369850701  0.7472140381311795  1.0000
  O   O104      1.0  0.23005659311296073  0.5006687908924139  0.7392223962437292  1.0000
  O   O105      1.0  0.32536164861863875  0.08693601030101061  0.6185180804417023  1.0000
  O   O106      1.0  0.8234052878836762  0.5789829388394854  0.6275493294148209  1.0000
  O   O107      1.0  0.6802529889242634  0.07975503776738625  0.6298929273329265  1.0000
  O   O108      1.0  0.17085180167942104  0.582115044946631  0.6203750761499236  1.0000
  O   O109      1.0  0.32090560432404663  0.9215244871652157  0.8667859618399035  1.0000
  O   O110      1.0  0.8355772818044749  0.42057739233718294  0.8854261006766412  1.0000
  O   O111      1.0  0.6756304342765627  0.9215597926000889  0.8851624310363851  1.0000
  O   O112      1.0  0.1655130277100401  0.4272651538627395  0.8709151494348261  1.0000
  O   O113      1.0  0.37571458337880287  0.09128695868721584  0.954208759506681  1.0000
  O   O114      1.0  0.8658487159477806  0.5869385928239699  0.9510025031010029  1.0000
  O   O115      1.0  0.6202289485866077  0.09965879310876642  0.9705561419051056  1.0000
  O   O116      1.0  0.11475846198904768  0.5844337010747626  0.9730334110586562  1.0000
  O   O117      1.0  0.361989702246103  0.9117260964575139  0.6967627337296722  1.0000
  O   O118      1.0  0.8812103221913937  0.39528877239489446  0.7205098660141972  1.0000
  O   O119      1.0  0.6293502568877279  0.9008974474304305  0.7245156610195492  1.0000
  O   O120      1.0  0.12618376167540826  0.4105257993978374  0.7163888061657716  1.0000
  O   O121      1.0  0.6230865312129606  0.9065192180982579  0.5526170915275787  1.0000
  O   O122      1.0  0.131498004610125  0.3947670180177954  0.5399145774110766  1.0000
  O   O123      1.0  0.3855477915509413  0.9073436953337978  0.5307277832356316  1.0000
  O   O124      1.0  0.8740237870930551  0.41336555488120574  0.5441124842281472  1.0000
  O   O125      1.0  0.6338315975512508  0.08251758784492115  0.7921409637277645  1.0000
  O   O126      1.0  0.12320819655759621  0.5849768870853878  0.7930310585571663  1.0000
  O   O127      1.0  0.3828598471181688  0.08782727590325114  0.779195104947143  1.0000
  O   O128      1.0  0.8774867273199461  0.6020652566787063  0.7737972041735187  1.0000
  O   O129      1.0  0.23206060562715067  0.11093412711149298  0.9771720311954328  1.0000
  O   O130      1.0  0.7469540877712345  0.6337763465002542  0.003205484379814383  1.0000
  O   O131      1.0  0.7622018592644392  0.11867970560114605  0.9813846087158726  1.0000
  O   O132      1.0  0.25746295591042956  0.6149583928971497  0.9877004843319037  1.0000
  O   O133      1.0  0.2240783283979021  0.8835483732918712  0.7510529981874264  1.0000
  O   O134      1.0  0.7467673598379148  0.3751463733523913  0.7641218060459948  1.0000
  O   O135      1.0  0.7622900983805947  0.8638403535800927  0.7699070317244845  1.0000
  O   O136      1.0  0.26652784806487684  0.38149824794606746  0.7566354690952037  1.0000
  O   O137      1.0  0.759375728932853  0.8839652842365903  0.5013511249120267  1.0000
  O   O138      1.0  0.270149582614574  0.38500394784212505  0.483406898712074  1.0000
  O   O139      1.0  0.24520571661691726  0.8765407731135622  0.49527327660009596  1.0000
  O   O140      1.0  0.740324460362497  0.38148024141942416  0.511615673452679  1.0000
  O   O141      1.0  0.7707697327709815  0.11520139779405847  0.7531376783755301  1.0000
  O   O142      1.0  0.25812777845718016  0.6244240568490783  0.7523444505766685  1.0000
  O   O143      1.0  0.24870310942333537  0.12835094219873255  0.7648888343196684  1.0000
  O   O144      1.0  0.7316883876141903  0.6076959853183805  0.7634384866313706  1.0000
  O   O145      1.0  0.3270037828548571  0.3239580404397692  0.6256724100028849  1.0000
  O   O146      1.0  0.8157533614124696  0.8056382710757379  0.62911756407667  1.0000
  O   O147      1.0  0.6838030442507446  0.3124080526046637  0.6341459391492675  1.0000
  O   O148      1.0  0.16879401789167925  0.8136856130237807  0.6233333937182491  1.0000
  O   O149      1.0  0.3214193000635145  0.6914387767030042  0.874704933159832  1.0000
  O   O150      1.0  0.8366174457529278  0.18860967841738094  0.8704855219688995  1.0000
  O   O151      1.0  0.679912723162677  0.6996100073919531  0.882036660110634  1.0000
  O   O152      1.0  0.17694813773884882  0.20062390922307402  0.8751839468330359  1.0000
  O   O153      1.0  0.25002975586740567  0.2532141832359691  0.5080173303320683  1.0000
  O   O154      1.0  0.743519969138846  0.7591147744867316  0.48267034536284176  1.0000
  O   O155      1.0  0.7510575468210304  0.24879920877600217  0.512444578197735  1.0000
  O   O156      1.0  0.24856201808887984  0.7511613524466296  0.502173648237604  1.0000
  O   O157      1.0  0.2639148377063931  0.7569394011036851  0.7370349738160463  1.0000
  O   O158      1.0  0.74378664070622  0.24455157949620757  0.7690065671709285  1.0000
  O   O159      1.0  0.7586618486776531  0.7353344648640809  0.741095157734193  1.0000
  O   O160      1.0  0.23564273848942685  0.26249978581750566  0.7286569369461677  1.0000
  O   O161      1.0  0.38300029031698113  0.30452034752003787  0.9557068678529569  1.0000
  O   O162      1.0  0.8749395940351524  0.8180957408089722  0.9588739223190147  1.0000
  O   O163      1.0  0.6236030380840618  0.3075413697114258  0.9545681682587794  1.0000
  O   O164      1.0  0.12014421352758911  0.7998342777088757  0.9738249202499758  1.0000
  O   O165      1.0  0.38076499367838257  0.6907802128526366  0.7162987231471065  1.0000
  O   O166      1.0  0.8757188749380104  0.1956555411255429  0.7145142844885513  1.0000
  O   O167      1.0  0.6286507893376637  0.6930434132227923  0.7155949025396741  1.0000
  O   O168      1.0  0.12434938953523808  0.18242516312702511  0.7090703832437057  1.0000
  O   O169      1.0  0.621761979081036  0.6981901211276796  0.5337448621341729  1.0000
  O   O170      1.0  0.12618093146492923  0.19953011767909398  0.5339426518186576  1.0000
  O   O171      1.0  0.3757066645676263  0.6988307894885672  0.5392921629661829  1.0000
  O   O172      1.0  0.8774460217850251  0.1924586760019569  0.541372642993612  1.0000
  O   O173      1.0  0.6214549470332928  0.30693039697364094  0.7813848459110372  1.0000
  O   O174      1.0  0.12369198211813813  0.8010347589215777  0.7911113732729192  1.0000
  O   O175      1.0  0.37591576326516946  0.29923061741779505  0.7810361995756767  1.0000
  O   O176      1.0  0.885347960175559  0.7979127386900955  0.7881160046643507  1.0000
  O   O177      1.0  0.0039251159965971345  0.39759523488928084  0.6312669204032805  1.0000
  O   O178      1.0  0.49863474496785337  0.8981639929857128  0.6483603467716945  1.0000
  O   O179      1.0  0.9992184209139026  0.5946422343302751  0.8776995546625106  1.0000
  O   O180      1.0  0.5042687150142281  0.08959280575961955  0.8677077030716218  1.0000
  O   O181      1.0  0.08517384503090128  0.2980709603817829  0.6503066077740246  1.0000
  O   O182      1.0  0.5849304784552286  0.7978559446420993  0.6322663316081003  1.0000
  O   O183      1.0  0.9113852855142981  0.302384413758176  0.6104025232545537  1.0000
  O   O184      1.0  0.4147753113898433  0.7984579696351441  0.6312772452482824  1.0000
  O   O185      1.0  0.09078023469796244  0.692544984442061  0.8775037225010557  1.0000
  O   O186      1.0  0.5995491217415087  0.19548768507701855  0.8620218886756207  1.0000
  O   O187      1.0  0.9009475183275905  0.6979964104652924  0.8908605957791339  1.0000
  O   O188      1.0  0.41129432966136836  0.19257432510354128  0.868354690172429  1.0000
  O   O189      1.0  0.9986555282812658  0.20161882119915372  0.6313359306799317  1.0000
  O   O190      1.0  0.5015495085300359  0.6937696522761514  0.6213690589572656  1.0000
  O   O191      1.0  0.0018666540921689473  0.7949838237736587  0.8879478041509916  1.0000
  O   O192      1.0  0.5022623645237778  0.2901611593886718  0.8688335513885121  1.0000
  Si  Si48      1.0  0.3010596800267647  0.07578871432265953  0.5169375086829  1.0000
  Si  Si49      1.0  0.8049771496762731  0.5787118148200862  0.5229213576101313  1.0000
  Si  Si50      1.0  0.6976401640521345  0.07541747033336502  0.529284296117763  1.0000
  Si  Si51      1.0  0.19558151526586917  0.57374812343255  0.5166740885179323  1.0000
  Si  Si52      1.0  0.2961630583059948  0.9289485882299479  0.7654179753661516  1.0000
  Si  Si53      1.0  0.815994448247788  0.42191407670180137  0.7828165020923485  1.0000
  Si  Si54      1.0  0.6992558740870874  0.9181951678549887  0.78259838677174  1.0000
  Si  Si55      1.0  0.19717236720023196  0.4297896636384728  0.7706086855928388  1.0000
  Si  Si56      1.0  0.6920562928740734  0.9277156831915614  0.9912371681170311  1.0000
  Si  Si57      1.0  0.1921417264005448  0.4194432762837479  0.9753010371515886  1.0000
  Si  Si58      1.0  0.30649730694670735  0.921467109198102  0.9725370905323147  1.0000
  Si  Si59      1.0  0.8025981342736141  0.4295033927863895  0.9828738786686284  1.0000
  Si  Si60      1.0  0.7047017081813314  0.06632239242683811  0.7307296482603192  1.0000
  Si  Si61      1.0  0.19290348965241016  0.5742008448364332  0.7278689329486481  1.0000
  Si  Si62      1.0  0.3058982895191432  0.07642119710179188  0.7231222775154087  1.0000
  Si  Si63      1.0  0.8045076105623546  0.5707894213360513  0.7294706778176132  1.0000
  Si  Si64      1.0  0.3026920355369077  0.3179404821865194  0.5203050845218509  1.0000
  Si  Si65      1.0  0.7989305837839034  0.8132871868447152  0.5240463373834253  1.0000
  Si  Si66      1.0  0.6987057791807234  0.31222576318592976  0.5296919539186152  1.0000
  Si  Si67      1.0  0.19583431651243458  0.8131902674723506  0.5196940080028256  1.0000
  Si  Si68      1.0  0.30479112775109396  0.6889726369237774  0.7704520619708795  1.0000
  Si  Si69      1.0  0.8041993138596979  0.1877711593637335  0.7734514393437373  1.0000
  Si  Si70      1.0  0.7027446296275117  0.6829520616739203  0.7782110787117582  1.0000
  Si  Si71      1.0  0.2007870447574674  0.19473086210325058  0.769119256082652  1.0000
  Si  Si72      1.0  0.7010361860454712  0.6986657020640481  0.9839421120536517  1.0000
  Si  Si73      1.0  0.20167280742360927  0.1849508991816054  0.9749558220914238  1.0000
  Si  Si74      1.0  0.30543285889836425  0.6822485686808577  0.9789164152104722  1.0000
  Si  Si75      1.0  0.8033210846120498  0.1891926902442366  0.9711648886681314  1.0000
  Si  Si76      1.0  0.7017335952606416  0.31143278300536503  0.7386505012047108  1.0000
  Si  Si77      1.0  0.19482891149525935  0.8120423740445786  0.7265327941233674  1.0000
  Si  Si78      1.0  0.30344111081128666  0.31402171235498255  0.7244767435345565  1.0000
  Si  Si79      1.0  0.8051058604752126  0.8017282746411145  0.7338800255013481  1.0000
  Si  Si80      1.0  0.08640374755452214  0.3747058085698656  0.6324015320346644  1.0000
  Si  Si81      1.0  0.5835520776441497  0.8763025750221075  0.6411996773702482  1.0000
  Si  Si82      1.0  0.9164515699585928  0.37908171596755097  0.6258087060087575  1.0000
  Si  Si83      1.0  0.4118065666868066  0.8762999890250157  0.6260414532530231  1.0000
  Si  Si84      1.0  0.08452406860696307  0.6148234140760598  0.8801730156879825  1.0000
  Si  Si85      1.0  0.5892543390558579  0.11858747170486836  0.8690191735427965  1.0000
  Si  Si86      1.0  0.9119726463122624  0.6197001385274968  0.8727868760648346  1.0000
  Si  Si87      1.0  0.42018230095428477  0.1155262082818978  0.8669961467502881  1.0000
  Si  Si88      1.0  0.08310819476253112  0.22071677838568315  0.6270934318050401  1.0000
  Si  Si89      1.0  0.5879797506049974  0.7218044297042396  0.627182052291327  1.0000
  Si  Si90      1.0  0.915456163346773  0.22316758140023615  0.6291320494830942  1.0000
  Si  Si91      1.0  0.41874486746912565  0.7202849586886781  0.6246349214772048  1.0000
  Si  Si92      1.0  0.08598850574518638  0.7709418131933283  0.8760182746956692  1.0000
  Si  Si93      1.0  0.5874661311809123  0.2719453257446072  0.8648289067414341  1.0000
  Si  Si94      1.0  0.9154282493602149  0.7757163917336457  0.8813548111482384  1.0000
  Si  Si95      1.0  0.417993300497501  0.2684896802329385  0.8670426092127842  1.0000
  N   N1        1.0  0.5  0.49999999999999994  0.5108796419033698  1.0000
  H   H2        1.0  0.5  0.5457653791556771  0.4852525239048198  1.0000
  H   H3        1.0  0.5443627315936992  0.47711733477241647  0.4852525239048198  1.0000
  H   H4        1.0  0.45563726840630075  0.47711733477241647  0.4852525239048198  1.0000
